<?xml version="1.0" encoding="UTF-8"?>

<!-- generated on 2026-04-15T14:59:01.114743+05:30 by Eclipse SUMO netconvert 1.26.0
<netconvertConfiguration xmlns:xsi="http://www.w3.org/2001/XMLSchema-instance" xsi:noNamespaceSchemaLocation="http://sumo.dlr.de/xsd/netconvertConfiguration.xsd">

    <input>
        <osm-files value="salem_map.osm"/>
    </input>

    <output>
        <output-file value="map.net.xml"/>
    </output>

    <projection>
        <proj.utm value="true"/>
    </projection>

    <processing>
        <geometry.remove value="true"/>
        <roundabouts.guess value="true"/>
    </processing>

    <tls_building>
        <tls.set value="3622848273"/>
        <tls.guess value="true"/>
        <tls.join value="true"/>
        <tls.guess-signals value="true"/>
        <tls.default-type value="actuated"/>
    </tls_building>

    <ramp_guessing>
        <ramps.guess value="true"/>
    </ramp_guessing>

    <junctions>
        <junctions.join value="true"/>
    </junctions>

</netconvertConfiguration>
-->

<net version="1.20" junctionCornerDetail="5" limitTurnSpeed="5.50" xmlns:xsi="http://www.w3.org/2001/XMLSchema-instance" xsi:noNamespaceSchemaLocation="http://sumo.dlr.de/xsd/net_file.xsd">

    <location netOffset="-187182.27,-1290778.02" convBoundary="0.00,0.00,2518.78,3913.47" origBoundary="78.130856,11.662312,78.153973,11.697568" projParameter="+proj=utm +zone=44 +ellps=WGS84 +datum=WGS84 +units=m +no_defs"/>

    <type id="highway.primary" priority="12" numLanes="2" speed="27.78" disallow="tram rail_urban rail rail_electric rail_fast ship container cable_car subway aircraft wheelchair scooter drone" oneway="0"/>
    <type id="highway.primary_link" priority="7" numLanes="1" speed="22.22" disallow="tram rail_urban rail rail_electric rail_fast ship container cable_car subway aircraft wheelchair scooter drone" oneway="0"/>
    <type id="highway.residential" priority="3" numLanes="1" speed="13.89" disallow="tram rail_urban rail rail_electric rail_fast ship container cable_car subway aircraft wheelchair scooter drone" oneway="0"/>
    <type id="highway.secondary" priority="11" numLanes="1" speed="27.78" disallow="tram rail_urban rail rail_electric rail_fast ship container cable_car subway aircraft wheelchair scooter drone" oneway="0"/>
    <type id="highway.tertiary" priority="10" numLanes="1" speed="22.22" disallow="tram rail_urban rail rail_electric rail_fast ship container cable_car subway aircraft wheelchair scooter drone" oneway="0"/>

    <edge id=":10654468787_0" function="internal">
        <lane id=":10654468787_0_0" index="0" disallow="tram rail_urban rail rail_electric rail_fast ship container cable_car subway aircraft wheelchair scooter drone" speed="5.90" length="8.37" shape="1038.59,1614.65 1038.93,1612.92 1040.12,1611.83 1042.16,1611.39 1045.05,1611.60"/>
    </edge>
    <edge id=":10654468787_1" function="internal">
        <lane id=":10654468787_1_0" index="0" disallow="tram rail_urban rail rail_electric rail_fast ship container cable_car subway aircraft wheelchair scooter drone" speed="3.65" length="4.67" shape="1038.59,1614.65 1039.34,1613.42 1040.12,1612.98 1040.93,1613.35 1041.79,1614.51"/>
    </edge>
    <edge id=":10654468787_2" function="internal">
        <lane id=":10654468787_2_0" index="0" disallow="tram rail_urban rail rail_electric rail_fast ship container cable_car subway aircraft wheelchair scooter drone" speed="27.78" length="9.65" shape="1035.93,1607.09 1045.56,1608.44"/>
        <lane id=":10654468787_2_1" index="1" disallow="tram rail_urban rail rail_electric rail_fast ship container cable_car subway aircraft wheelchair scooter drone" speed="27.78" length="9.65" shape="1035.56,1610.27 1045.05,1611.60"/>
    </edge>
    <edge id=":10654468787_4" function="internal">
        <lane id=":10654468787_4_0" index="0" disallow="tram rail_urban rail rail_electric rail_fast ship container cable_car subway aircraft wheelchair scooter drone" speed="6.60" length="8.20" shape="1035.56,1610.27 1038.23,1610.79 1040.15,1611.68 1041.34,1612.91 1041.79,1614.51"/>
    </edge>
    <edge id=":10654468790_0" function="internal">
        <lane id=":10654468790_0_0" index="0" disallow="tram rail_urban rail rail_electric rail_fast ship container cable_car subway aircraft wheelchair scooter drone" speed="5.93" length="8.25" shape="1055.23,1617.15 1055.63,1615.50 1056.85,1614.47 1058.89,1614.06 1061.75,1614.28"/>
    </edge>
    <edge id=":10654468790_1" function="internal">
        <lane id=":10654468790_1_0" index="0" disallow="tram rail_urban rail rail_electric rail_fast ship container cable_car subway aircraft wheelchair scooter drone" speed="3.65" length="4.67" shape="1055.23,1617.15 1056.02,1615.95 1056.82,1615.54 1057.62,1615.94 1058.43,1617.13"/>
    </edge>
    <edge id=":10654468790_2" function="internal">
        <lane id=":10654468790_2_0" index="0" disallow="tram rail_urban rail rail_electric rail_fast ship container cable_car subway aircraft wheelchair scooter drone" speed="27.78" length="9.49" shape="1052.89,1609.61 1062.26,1611.12"/>
        <lane id=":10654468790_2_1" index="1" disallow="tram rail_urban rail rail_electric rail_fast ship container cable_car subway aircraft wheelchair scooter drone" speed="27.78" length="9.49" shape="1052.38,1612.77 1061.75,1614.28"/>
    </edge>
    <edge id=":10654468790_4" function="internal">
        <lane id=":10654468790_4_0" index="0" disallow="tram rail_urban rail rail_electric rail_fast ship container cable_car subway aircraft wheelchair scooter drone" speed="6.59" length="8.09" shape="1052.38,1612.77 1055.02,1613.41 1056.91,1614.35 1058.04,1615.59 1058.43,1617.13"/>
    </edge>
    <edge id=":10732188673_0" function="internal">
        <lane id=":10732188673_0_0" index="0" disallow="tram rail_urban rail rail_electric rail_fast ship container cable_car subway aircraft wheelchair scooter drone" speed="22.22" length="9.24" shape="917.94,927.40 910.68,933.13"/>
    </edge>
    <edge id=":10732188673_1" function="internal">
        <lane id=":10732188673_1_0" index="0" disallow="tram rail_urban rail rail_electric rail_fast ship container cable_car subway aircraft wheelchair scooter drone" speed="14.17" length="9.25" shape="914.82,925.09 913.98,927.73 913.46,929.63 912.58,931.27 910.68,933.13"/>
    </edge>
    <edge id=":2181376456_0" function="internal">
        <lane id=":2181376456_0_0" index="0" disallow="tram rail_urban rail rail_electric rail_fast ship container cable_car subway aircraft wheelchair scooter drone" speed="3.65" length="4.67" shape="173.85,876.40 172.63,875.63 172.21,874.84 172.59,874.03 173.77,873.20"/>
    </edge>
    <edge id=":2181376479_0" function="internal">
        <lane id=":2181376479_0_0" index="0" disallow="tram rail_urban rail rail_electric rail_fast ship container cable_car subway aircraft wheelchair scooter drone" speed="27.78" length="9.21" shape="835.21,918.13 839.24,926.30"/>
        <lane id=":2181376479_0_1" index="1" disallow="tram rail_urban rail rail_electric rail_fast ship container cable_car subway aircraft wheelchair scooter drone" speed="27.78" length="9.21" shape="832.30,919.45 836.42,927.81"/>
    </edge>
    <edge id=":2181376479_2" function="internal">
        <lane id=":2181376479_2_0" index="0" disallow="tram rail_urban rail rail_electric rail_fast ship container cable_car subway aircraft wheelchair scooter drone" speed="6.05" length="7.85" shape="832.30,919.45 833.27,922.06 833.53,924.10 833.08,925.58 831.94,926.49"/>
    </edge>
    <edge id=":2181376479_3" function="internal">
        <lane id=":2181376479_3_0" index="0" disallow="tram rail_urban rail rail_electric rail_fast ship container cable_car subway aircraft wheelchair scooter drone" speed="6.29" length="7.77" shape="830.70,923.54 832.11,923.36 833.53,924.02 834.97,925.50 836.42,927.81"/>
    </edge>
    <edge id=":2181376479_4" function="internal">
        <lane id=":2181376479_4_0" index="0" disallow="tram rail_urban rail rail_electric rail_fast ship container cable_car subway aircraft wheelchair scooter drone" speed="3.65" length="4.67" shape="830.70,923.54 832.12,923.81 832.79,924.40 832.73,925.29 831.94,926.49"/>
    </edge>
    <edge id=":2181505149_0" function="internal">
        <lane id=":2181505149_0_0" index="0" disallow="tram rail_urban rail rail_electric rail_fast ship container cable_car subway aircraft wheelchair scooter drone" speed="6.43" length="9.03" shape="1253.23,1005.31 1252.24,1003.03 1250.77,1001.63 1248.80,1001.13 1246.34,1001.52"/>
    </edge>
    <edge id=":2181505149_1" function="internal">
        <lane id=":2181505149_1_0" index="0" disallow="tram rail_urban rail rail_electric rail_fast ship container cable_car subway aircraft wheelchair scooter drone" speed="13.89" length="14.40" shape="1253.23,1005.31 1249.46,991.41"/>
    </edge>
    <edge id=":2181505149_2" function="internal">
        <lane id=":2181505149_2_0" index="0" disallow="tram rail_urban rail rail_electric rail_fast ship container cable_car subway aircraft wheelchair scooter drone" speed="3.65" length="1.44" shape="1253.23,1005.31 1253.69,1003.94"/>
    </edge>
    <edge id=":2181505149_9" function="internal">
        <lane id=":2181505149_9_0" index="0" disallow="tram rail_urban rail rail_electric rail_fast ship container cable_car subway aircraft wheelchair scooter drone" speed="3.65" length="3.23" shape="1253.69,1003.94 1254.35,1003.35 1255.23,1003.53 1256.32,1004.48"/>
    </edge>
    <edge id=":2181505149_3" function="internal">
        <lane id=":2181505149_3_0" index="0" disallow="tram rail_urban rail rail_electric rail_fast ship container cable_car subway aircraft wheelchair scooter drone" speed="13.89" length="14.41" shape="1252.55,990.57 1256.32,1004.48"/>
    </edge>
    <edge id=":2181505149_4" function="internal">
        <lane id=":2181505149_4_0" index="0" disallow="tram rail_urban rail rail_electric rail_fast ship container cable_car subway aircraft wheelchair scooter drone" speed="8.12" length="4.01" shape="1252.55,990.57 1253.01,994.38 1252.96,994.55"/>
    </edge>
    <edge id=":2181505149_5" function="internal">
        <lane id=":2181505149_5_0" index="0" disallow="tram rail_urban rail rail_electric rail_fast ship container cable_car subway aircraft wheelchair scooter drone" speed="3.65" length="1.44" shape="1252.55,990.57 1252.09,991.94"/>
    </edge>
    <edge id=":2181505149_10" function="internal">
        <lane id=":2181505149_10_0" index="0" disallow="tram rail_urban rail rail_electric rail_fast ship container cable_car subway aircraft wheelchair scooter drone" speed="8.12" length="10.24" shape="1252.96,994.55 1252.13,997.47 1249.91,999.86 1246.34,1001.52"/>
    </edge>
    <edge id=":2181505149_11" function="internal">
        <lane id=":2181505149_11_0" index="0" disallow="tram rail_urban rail rail_electric rail_fast ship container cable_car subway aircraft wheelchair scooter drone" speed="3.65" length="3.23" shape="1252.09,991.94 1251.43,992.53 1250.55,992.36 1249.46,991.41"/>
    </edge>
    <edge id=":2181505149_6" function="internal">
        <lane id=":2181505149_6_0" index="0" disallow="tram rail_urban rail rail_electric rail_fast ship container cable_car subway aircraft wheelchair scooter drone" speed="6.65" length="9.22" shape="1245.40,998.47 1247.72,997.39 1249.17,995.85 1249.75,993.86 1249.46,991.41"/>
    </edge>
    <edge id=":2181505149_7" function="internal">
        <lane id=":2181505149_7_0" index="0" disallow="tram rail_urban rail rail_electric rail_fast ship container cable_car subway aircraft wheelchair scooter drone" speed="7.94" length="14.33" shape="1245.40,998.47 1249.29,997.85 1252.41,998.64 1254.75,1000.85 1256.32,1004.48"/>
    </edge>
    <edge id=":2181505149_8" function="internal">
        <lane id=":2181505149_8_0" index="0" disallow="tram rail_urban rail rail_electric rail_fast ship container cable_car subway aircraft wheelchair scooter drone" speed="3.65" length="4.67" shape="1245.40,998.47 1246.78,998.88 1247.40,999.52 1247.25,1000.40 1246.34,1001.52"/>
    </edge>
    <edge id=":2181505150_0" function="internal">
        <lane id=":2181505150_0_0" index="0" disallow="tram rail_urban rail rail_electric rail_fast ship container cable_car subway aircraft wheelchair scooter drone" speed="6.85" length="8.13" shape="820.49,1019.24 820.60,1017.66 821.47,1016.18 823.10,1014.80 825.48,1013.52"/>
    </edge>
    <edge id=":2181505150_1" function="internal">
        <lane id=":2181505150_1_0" index="0" disallow="tram rail_urban rail rail_electric rail_fast ship container cable_car subway aircraft wheelchair scooter drone" speed="3.65" length="4.67" shape="820.49,1019.24 821.09,1017.92 821.81,1017.40 822.67,1017.66 823.65,1018.71"/>
    </edge>
    <edge id=":2181505150_2" function="internal">
        <lane id=":2181505150_2_0" index="0" disallow="tram rail_urban rail rail_electric rail_fast ship container cable_car subway aircraft wheelchair scooter drone" speed="27.78" length="9.33" shape="815.61,1014.02 824.17,1010.60"/>
        <lane id=":2181505150_2_1" index="1" disallow="tram rail_urban rail rail_electric rail_fast ship container cable_car subway aircraft wheelchair scooter drone" speed="27.78" length="9.33" shape="816.71,1017.03 825.48,1013.52"/>
    </edge>
    <edge id=":2181505150_4" function="internal">
        <lane id=":2181505150_4_0" index="0" disallow="tram rail_urban rail rail_electric rail_fast ship container cable_car subway aircraft wheelchair scooter drone" speed="5.91" length="8.32" shape="816.71,1017.03 819.50,1016.27 821.59,1016.30 822.97,1017.11 823.65,1018.71"/>
    </edge>
    <edge id=":2181505151_0" function="internal">
        <lane id=":2181505151_0_0" index="0" disallow="tram rail_urban rail rail_electric rail_fast ship container cable_car subway aircraft wheelchair scooter drone" speed="6.48" length="9.03" shape="1262.76,1040.57 1261.78,1038.29 1260.31,1036.89 1258.35,1036.34 1255.89,1036.67"/>
    </edge>
    <edge id=":2181505151_1" function="internal">
        <lane id=":2181505151_1_0" index="0" disallow="tram rail_urban rail rail_electric rail_fast ship container cable_car subway aircraft wheelchair scooter drone" speed="13.89" length="14.40" shape="1262.76,1040.57 1259.00,1026.67"/>
    </edge>
    <edge id=":2181505151_2" function="internal">
        <lane id=":2181505151_2_0" index="0" disallow="tram rail_urban rail rail_electric rail_fast ship container cable_car subway aircraft wheelchair scooter drone" speed="3.65" length="1.44" shape="1262.76,1040.57 1263.22,1039.20"/>
    </edge>
    <edge id=":2181505151_9" function="internal">
        <lane id=":2181505151_9_0" index="0" disallow="tram rail_urban rail rail_electric rail_fast ship container cable_car subway aircraft wheelchair scooter drone" speed="3.65" length="3.23" shape="1263.22,1039.20 1263.89,1038.61 1264.77,1038.79 1265.85,1039.74"/>
    </edge>
    <edge id=":2181505151_3" function="internal">
        <lane id=":2181505151_3_0" index="0" disallow="tram rail_urban rail rail_electric rail_fast ship container cable_car subway aircraft wheelchair scooter drone" speed="13.89" length="14.40" shape="1262.09,1025.83 1265.85,1039.74"/>
    </edge>
    <edge id=":2181505151_4" function="internal">
        <lane id=":2181505151_4_0" index="0" disallow="tram rail_urban rail rail_electric rail_fast ship container cable_car subway aircraft wheelchair scooter drone" speed="8.04" length="4.05" shape="1262.09,1025.83 1262.56,1029.68 1262.51,1029.85"/>
    </edge>
    <edge id=":2181505151_5" function="internal">
        <lane id=":2181505151_5_0" index="0" disallow="tram rail_urban rail rail_electric rail_fast ship container cable_car subway aircraft wheelchair scooter drone" speed="3.65" length="1.44" shape="1262.09,1025.83 1261.63,1027.20"/>
    </edge>
    <edge id=":2181505151_10" function="internal">
        <lane id=":2181505151_10_0" index="0" disallow="tram rail_urban rail rail_electric rail_fast ship container cable_car subway aircraft wheelchair scooter drone" speed="8.04" length="10.16" shape="1262.51,1029.85 1261.68,1032.77 1259.46,1035.10 1255.89,1036.67"/>
    </edge>
    <edge id=":2181505151_11" function="internal">
        <lane id=":2181505151_11_0" index="0" disallow="tram rail_urban rail rail_electric rail_fast ship container cable_car subway aircraft wheelchair scooter drone" speed="3.65" length="3.23" shape="1261.63,1027.20 1260.97,1027.80 1260.09,1027.62 1259.00,1026.67"/>
    </edge>
    <edge id=":2181505151_6" function="internal">
        <lane id=":2181505151_6_0" index="0" disallow="tram rail_urban rail rail_electric rail_fast ship container cable_car subway aircraft wheelchair scooter drone" speed="6.55" length="9.09" shape="1255.02,1033.59 1257.31,1032.58 1258.74,1031.10 1259.30,1029.12 1259.00,1026.67"/>
    </edge>
    <edge id=":2181505151_7" function="internal">
        <lane id=":2181505151_7_0" index="0" disallow="tram rail_urban rail rail_electric rail_fast ship container cable_car subway aircraft wheelchair scooter drone" speed="7.98" length="14.23" shape="1255.02,1033.59 1258.89,1033.08 1261.99,1033.93 1264.31,1036.15 1265.85,1039.74"/>
    </edge>
    <edge id=":2181505151_8" function="internal">
        <lane id=":2181505151_8_0" index="0" disallow="tram rail_urban rail rail_electric rail_fast ship container cable_car subway aircraft wheelchair scooter drone" speed="3.65" length="4.67" shape="1255.02,1033.59 1256.39,1034.04 1257.00,1034.70 1256.83,1035.58 1255.89,1036.67"/>
    </edge>
    <edge id=":2181505152_0" function="internal">
        <lane id=":2181505152_0_0" index="0" disallow="tram rail_urban rail rail_electric rail_fast ship container cable_car subway aircraft wheelchair scooter drone" speed="22.22" length="14.99" shape="1128.67,1044.03 1127.49,1040.47 1126.42,1036.88 1125.46,1033.26 1124.61,1029.60"/>
    </edge>
    <edge id=":2181505152_1" function="internal">
        <lane id=":2181505152_1_0" index="0" disallow="tram rail_urban rail rail_electric rail_fast ship container cable_car subway aircraft wheelchair scooter drone" speed="7.97" length="4.20" shape="1128.67,1044.03 1127.92,1040.15 1127.97,1039.91"/>
    </edge>
    <edge id=":2181505152_2" function="internal">
        <lane id=":2181505152_2_0" index="0" disallow="tram rail_urban rail rail_electric rail_fast ship container cable_car subway aircraft wheelchair scooter drone" speed="3.65" length="1.44" shape="1128.67,1044.03 1129.03,1042.63"/>
    </edge>
    <edge id=":2181505152_9" function="internal">
        <lane id=":2181505152_9_0" index="0" disallow="tram rail_urban rail rail_electric rail_fast ship container cable_car subway aircraft wheelchair scooter drone" speed="7.97" length="10.27" shape="1127.97,1039.91 1128.63,1036.99 1130.80,1034.56 1134.44,1032.84"/>
    </edge>
    <edge id=":2181505152_10" function="internal">
        <lane id=":2181505152_10_0" index="0" disallow="tram rail_urban rail rail_electric rail_fast ship container cable_car subway aircraft wheelchair scooter drone" speed="3.65" length="3.23" shape="1129.03,1042.63 1129.65,1041.99 1130.54,1042.10 1131.69,1042.97"/>
    </edge>
    <edge id=":2181505152_3" function="internal">
        <lane id=":2181505152_3_0" index="0" disallow="tram rail_urban rail rail_electric rail_fast ship container cable_car subway aircraft wheelchair scooter drone" speed="6.47" length="9.17" shape="1135.39,1035.90 1133.07,1036.99 1131.68,1038.53 1131.22,1040.52 1131.69,1042.97"/>
    </edge>
    <edge id=":2181505152_4" function="internal">
        <lane id=":2181505152_4_0" index="0" disallow="tram rail_urban rail rail_electric rail_fast ship container cable_car subway aircraft wheelchair scooter drone" speed="7.85" length="14.54" shape="1135.39,1035.90 1131.41,1036.53 1128.28,1035.69 1126.02,1033.38 1124.61,1029.60"/>
    </edge>
    <edge id=":2181505152_5" function="internal">
        <lane id=":2181505152_5_0" index="0" disallow="tram rail_urban rail rail_electric rail_fast ship container cable_car subway aircraft wheelchair scooter drone" speed="3.65" length="4.67" shape="1135.39,1035.90 1134.01,1035.49 1133.39,1034.85 1133.53,1033.96 1134.44,1032.84"/>
    </edge>
    <edge id=":2181505152_6" function="internal">
        <lane id=":2181505152_6_0" index="0" disallow="tram rail_urban rail rail_electric rail_fast ship container cable_car subway aircraft wheelchair scooter drone" speed="6.33" length="9.04" shape="1127.74,1028.93 1128.61,1031.28 1130.02,1032.72 1131.97,1033.24 1134.44,1032.84"/>
    </edge>
    <edge id=":2181505152_7" function="internal">
        <lane id=":2181505152_7_0" index="0" disallow="tram rail_urban rail rail_electric rail_fast ship container cable_car subway aircraft wheelchair scooter drone" speed="22.22" length="14.59" shape="1127.74,1028.93 1128.57,1032.52 1129.49,1036.01 1130.52,1039.47 1131.69,1042.97"/>
    </edge>
    <edge id=":2181505152_8" function="internal">
        <lane id=":2181505152_8_0" index="0" disallow="tram rail_urban rail rail_electric rail_fast ship container cable_car subway aircraft wheelchair scooter drone" speed="3.65" length="1.44" shape="1127.74,1028.93 1127.21,1030.27"/>
    </edge>
    <edge id=":2181505152_11" function="internal">
        <lane id=":2181505152_11_0" index="0" disallow="tram rail_urban rail rail_electric rail_fast ship container cable_car subway aircraft wheelchair scooter drone" speed="3.65" length="3.23" shape="1127.21,1030.27 1126.51,1030.83 1125.65,1030.61 1124.61,1029.60"/>
    </edge>
    <edge id=":2181505153_0" function="internal">
        <lane id=":2181505153_0_0" index="0" disallow="tram rail_urban rail rail_electric rail_fast ship container cable_car subway aircraft wheelchair scooter drone" speed="6.39" length="9.04" shape="1461.42,1058.84 1460.47,1056.53 1459.01,1055.12 1457.05,1054.62 1454.59,1055.01"/>
    </edge>
    <edge id=":2181505153_1" function="internal">
        <lane id=":2181505153_1_0" index="0" disallow="tram rail_urban rail rail_electric rail_fast ship container cable_car subway aircraft wheelchair scooter drone" speed="22.22" length="14.41" shape="1461.42,1058.84 1457.89,1044.87"/>
    </edge>
    <edge id=":2181505153_2" function="internal">
        <lane id=":2181505153_2_0" index="0" disallow="tram rail_urban rail rail_electric rail_fast ship container cable_car subway aircraft wheelchair scooter drone" speed="3.65" length="1.44" shape="1461.42,1058.84 1461.90,1057.48"/>
    </edge>
    <edge id=":2181505153_9" function="internal">
        <lane id=":2181505153_9_0" index="0" disallow="tram rail_urban rail rail_electric rail_fast ship container cable_car subway aircraft wheelchair scooter drone" speed="3.65" length="3.23" shape="1461.90,1057.48 1462.58,1056.89 1463.45,1057.08 1464.52,1058.05"/>
    </edge>
    <edge id=":2181505153_3" function="internal">
        <lane id=":2181505153_3_0" index="0" disallow="tram rail_urban rail rail_electric rail_fast ship container cable_car subway aircraft wheelchair scooter drone" speed="22.22" length="14.41" shape="1460.99,1044.08 1464.52,1058.05"/>
    </edge>
    <edge id=":2181505153_4" function="internal">
        <lane id=":2181505153_4_0" index="0" disallow="tram rail_urban rail rail_electric rail_fast ship container cable_car subway aircraft wheelchair scooter drone" speed="8.18" length="3.98" shape="1460.99,1044.08 1461.37,1047.87 1461.32,1048.03"/>
    </edge>
    <edge id=":2181505153_5" function="internal">
        <lane id=":2181505153_5_0" index="0" disallow="tram rail_urban rail rail_electric rail_fast ship container cable_car subway aircraft wheelchair scooter drone" speed="3.65" length="1.44" shape="1460.99,1044.08 1460.51,1045.44"/>
    </edge>
    <edge id=":2181505153_10" function="internal">
        <lane id=":2181505153_10_0" index="0" disallow="tram rail_urban rail rail_electric rail_fast ship container cable_car subway aircraft wheelchair scooter drone" speed="8.18" length="10.29" shape="1461.32,1048.03 1460.44,1050.96 1458.18,1053.34 1454.59,1055.01"/>
    </edge>
    <edge id=":2181505153_11" function="internal">
        <lane id=":2181505153_11_0" index="0" disallow="tram rail_urban rail rail_electric rail_fast ship container cable_car subway aircraft wheelchair scooter drone" speed="3.65" length="3.23" shape="1460.51,1045.44 1459.83,1046.03 1458.96,1045.83 1457.89,1044.87"/>
    </edge>
    <edge id=":2181505153_6" function="internal">
        <lane id=":2181505153_6_0" index="0" disallow="tram rail_urban rail rail_electric rail_fast ship container cable_car subway aircraft wheelchair scooter drone" speed="6.73" length="9.31" shape="1453.64,1051.96 1456.00,1050.86 1457.50,1049.31 1458.13,1047.31 1457.89,1044.87"/>
    </edge>
    <edge id=":2181505153_7" function="internal">
        <lane id=":2181505153_7_0" index="0" disallow="tram rail_urban rail rail_electric rail_fast ship container cable_car subway aircraft wheelchair scooter drone" speed="7.91" length="14.40" shape="1453.64,1051.96 1457.57,1051.33 1460.69,1052.13 1463.01,1054.37 1464.52,1058.05"/>
    </edge>
    <edge id=":2181505153_8" function="internal">
        <lane id=":2181505153_8_0" index="0" disallow="tram rail_urban rail rail_electric rail_fast ship container cable_car subway aircraft wheelchair scooter drone" speed="3.65" length="4.67" shape="1453.64,1051.96 1455.02,1052.36 1455.64,1053.01 1455.50,1053.89 1454.59,1055.01"/>
    </edge>
    <edge id=":2181505154_0" function="internal">
        <lane id=":2181505154_0_0" index="0" disallow="tram rail_urban rail rail_electric rail_fast ship container cable_car subway aircraft wheelchair scooter drone" speed="22.22" length="14.49" shape="1139.83,1075.56 1134.93,1061.93"/>
    </edge>
    <edge id=":2181505154_1" function="internal">
        <lane id=":2181505154_1_0" index="0" disallow="tram rail_urban rail rail_electric rail_fast ship container cable_car subway aircraft wheelchair scooter drone" speed="7.87" length="4.19" shape="1139.83,1075.56 1139.00,1071.63 1139.03,1071.46"/>
    </edge>
    <edge id=":2181505154_2" function="internal">
        <lane id=":2181505154_2_0" index="0" disallow="tram rail_urban rail rail_electric rail_fast ship container cable_car subway aircraft wheelchair scooter drone" speed="3.65" length="1.44" shape="1139.83,1075.56 1140.17,1074.16"/>
    </edge>
    <edge id=":2181505154_9" function="internal">
        <lane id=":2181505154_9_0" index="0" disallow="tram rail_urban rail rail_electric rail_fast ship container cable_car subway aircraft wheelchair scooter drone" speed="7.87" length="10.31" shape="1139.03,1071.46 1139.66,1068.47 1141.83,1066.08 1145.51,1064.45"/>
    </edge>
    <edge id=":2181505154_10" function="internal">
        <lane id=":2181505154_10_0" index="0" disallow="tram rail_urban rail rail_electric rail_fast ship container cable_car subway aircraft wheelchair scooter drone" speed="3.65" length="3.23" shape="1140.17,1074.16 1140.78,1073.51 1141.67,1073.61 1142.83,1074.46"/>
    </edge>
    <edge id=":2181505154_3" function="internal">
        <lane id=":2181505154_3_0" index="0" disallow="tram rail_urban rail rail_electric rail_fast ship container cable_car subway aircraft wheelchair scooter drone" speed="6.34" length="9.04" shape="1146.37,1067.53 1144.08,1068.54 1142.73,1070.04 1142.31,1072.01 1142.83,1074.46"/>
    </edge>
    <edge id=":2181505154_4" function="internal">
        <lane id=":2181505154_4_0" index="0" disallow="tram rail_urban rail rail_electric rail_fast ship container cable_car subway aircraft wheelchair scooter drone" speed="8.22" length="14.33" shape="1146.37,1067.53 1142.42,1068.09 1139.20,1067.34 1136.70,1065.29 1134.93,1061.93"/>
    </edge>
    <edge id=":2181505154_5" function="internal">
        <lane id=":2181505154_5_0" index="0" disallow="tram rail_urban rail rail_electric rail_fast ship container cable_car subway aircraft wheelchair scooter drone" speed="3.65" length="4.67" shape="1146.37,1067.53 1145.00,1067.08 1144.40,1066.42 1144.57,1065.54 1145.51,1064.45"/>
    </edge>
    <edge id=":2181505154_6" function="internal">
        <lane id=":2181505154_6_0" index="0" disallow="tram rail_urban rail rail_electric rail_fast ship container cable_car subway aircraft wheelchair scooter drone" speed="6.77" length="9.40" shape="1137.95,1060.87 1139.11,1063.04 1140.75,1064.36 1142.88,1064.83 1145.51,1064.45"/>
    </edge>
    <edge id=":2181505154_7" function="internal">
        <lane id=":2181505154_7_0" index="0" disallow="tram rail_urban rail rail_electric rail_fast ship container cable_car subway aircraft wheelchair scooter drone" speed="22.22" length="14.44" shape="1137.95,1060.87 1142.83,1074.46"/>
    </edge>
    <edge id=":2181505154_8" function="internal">
        <lane id=":2181505154_8_0" index="0" disallow="tram rail_urban rail rail_electric rail_fast ship container cable_car subway aircraft wheelchair scooter drone" speed="3.65" length="1.44" shape="1137.95,1060.87 1137.60,1062.26"/>
    </edge>
    <edge id=":2181505154_11" function="internal">
        <lane id=":2181505154_11_0" index="0" disallow="tram rail_urban rail rail_electric rail_fast ship container cable_car subway aircraft wheelchair scooter drone" speed="3.65" length="3.23" shape="1137.60,1062.26 1136.97,1062.91 1136.09,1062.79 1134.93,1061.93"/>
    </edge>
    <edge id=":2181505156_0" function="internal">
        <lane id=":2181505156_0_0" index="0" disallow="tram rail_urban rail rail_electric rail_fast ship container cable_car subway aircraft wheelchair scooter drone" speed="13.89" length="14.40" shape="1395.43,1073.45 1381.68,1077.73"/>
    </edge>
    <edge id=":2181505156_1" function="internal">
        <lane id=":2181505156_1_0" index="0" disallow="tram rail_urban rail rail_electric rail_fast ship container cable_car subway aircraft wheelchair scooter drone" speed="8.11" length="4.01" shape="1395.43,1073.45 1391.64,1074.05 1391.47,1074.01"/>
    </edge>
    <edge id=":2181505156_2" function="internal">