<routes>
    <vType id="car" accel="1.0" decel="4.5" length="5.0" maxSpeed="15.0" />
    <flow id="f1" type="car" begin="0" end="3600" probability="0.3" from="t2c" to="c2b"/>
    <flow id="f2" type="car" begin="0" end="3600" probability="0.3" from="b2c" to="c2t"/>
</routes>