<!-- generated on 2026-04-13 04:30:49.613491 by Eclipse SUMO randomTrips.py v1_26_0+0000-fa7df22d7f1
<configuration>
    <net-file value="map.net.xml"/>
    <route-file value="traffic.rou.xml"/>
    <prefix value="veh"/>
    <trip-attributes value="departLane=&quot;best&quot; departSpeed=&quot;max&quot; departPos=&quot;random&quot;"/>
    <vehicle-class value="passenger"/>
    <edge-permission value="passenger"/>
    <min-distance value="50.0"/>
    <period value="1.5"/>
</configuration>
-->

<!-- generated on 2026-04-13T04:30:49.290782+05:30 by Eclipse SUMO duarouter 1.26.0
<duarouterConfiguration xmlns:xsi="http://www.w3.org/2001/XMLSchema-instance" xsi:noNamespaceSchemaLocation="http://sumo.dlr.de/xsd/duarouterConfiguration.xsd">

    <input>
        <net-file value="map.net.xml"/>
        <route-files value="trips.trips.xml"/>
    </input>

    <output>
        <output-file value="traffic.rou.xml"/>
        <alternatives-output value="NUL"/>
    </output>

    <time>
        <begin value="0"/>
        <end value="3600.0"/>
    </time>

    <report>
        <no-warnings value="true"/>
        <ignore-errors value="true"/>
        <no-step-log value="true"/>
    </report>

</duarouterConfiguration>
-->

<routes xmlns:xsi="http://www.w3.org/2001/XMLSchema-instance" xsi:noNamespaceSchemaLocation="http://sumo.dlr.de/xsd/routes_file.xsd">
    <vType id="veh_passenger" vClass="passenger"/>
    <vehicle id="veh0" type="veh_passenger" depart="0.00" departLane="best" departPos="random" departSpeed="max">
        <route edges="207906001#5 -207906001#5 -207906001#3 -31852664#7 -31852664#5 -31852664#4 -31852664#3 -950226494#1 207905956#0 207905956#1 207905956#2 -1202494991#1"/>
    </vehicle>
    <vehicle id="veh1" type="veh_passenger" depart="1.50" departLane="best" departPos="random" departSpeed="max">
        <route edges="-31852855#6 207905995#2 207905995#4 -31852664#5 -31852664#4"/>
    </vehicle>
    <vehicle id="veh2" type="veh_passenger" depart="3.00" departLane="best" departPos="random" departSpeed="max">
        <route edges="31852664#8 -31852664#8 -31852664#7 -207905995#4 -207905995#2 -31852855#5 -31852855#4 207905968"/>
    </vehicle>
    <vehicle id="veh3" type="veh_passenger" depart="4.50" departLane="best" departPos="random" departSpeed="max">
        <route edges="356882482 207905950#3 -207905950#3"/>
    </vehicle>
    <vehicle id="veh4" type="veh_passenger" depart="6.00" departLane="best" departPos="random" departSpeed="max">
        <route edges="1017058801#1 232493047#1 232493047#2 232493047#3 31852855#0 31852855#1 31852855#2 31852855#3 31852855#4 31852855#5 207905995#2 207905995#4 31852664#7 31852664#8 31852664#9 -1202494993#1 -1202494993#0"/>
    </vehicle>
    <vehicle id="veh5" type="veh_passenger" depart="7.50" departLane="best" departPos="random" departSpeed="max">
        <route edges="-31852664#11 -356882503 356882435#1 -207906005#1 -207906005#0 31852855#12 31852855#13 31852855#14 31852855#15 1055890429 1055890426#0 1055890426#1 31897466#0 -356688226 356688279#1 1055890425#3 1055890425#4"/>
    </vehicle>
    <vehicle id="veh6" type="veh_passenger" depart="9.00" departLane="best" departPos="random" departSpeed="max">
        <route edges="-1202494991#1 356882756 31852664#0 31852664#1 31852664#2 31852664#3 31852664#4 31852664#5 31852664#7 31852664#8 31852664#9 -1202494993#1 -208162467 -208162485#0"/>
    </vehicle>
    <vehicle id="veh7" type="veh_passenger" depart="10.50" departLane="best" departPos="random" departSpeed="max">
        <route edges="207906005#2 1066324808 31852664#11 31852664#12 -1096223642 1096223642"/>
    </vehicle>
    <vehicle id="veh8" type="veh_passenger" depart="12.00" departLane="best" departPos="random" departSpeed="max">
        <route edges="356882433 232493047#2 232493047#3 31852855#0 31852855#1 31852855#2 31852855#3 31852855#4 31852855#5 207905995#2 207905995#4 31852664#7 31852664#8 31852664#9 31852664#11 31852664#12 -1096223642"/>
    </vehicle>
    <vehicle id="veh9" type="veh_passenger" depart="13.50" departLane="best" departPos="random" departSpeed="max">
        <route edges="-356882478 207906005#0 207906005#1 207906001#0 207906001#1 207906001#2 207906001#3 207906001#5 207906001#6 -207906001#6"/>
    </vehicle>
    <vehicle id="veh10" type="veh_passenger" depart="15.00" departLane="best" departPos="random" departSpeed="max">
        <route edges="356882509#1 356882500#1 -356882492#3 -356882492#2 -356882492#1 356882457#0 356882457#1 -356882457#1 -356882457#0"/>
    </vehicle>
    <vehicle id="veh11" type="veh_passenger" depart="16.50" departLane="best" departPos="random" departSpeed="max">
        <route edges="356882458 -207905950#3 -207905950#2 -207905950#0 -207905965#0 -207905948#7 -207905948#6 -207905948#4 -207905948#3 207905948#3"/>
    </vehicle>
    <vehicle id="veh12" type="veh_passenger" depart="18.00" departLane="best" departPos="random" departSpeed="max">
        <route edges="356882432 207905964#0 207905964#1 207905949#1 207905949#2 -356882478 -31852855#10 -31852855#9 -31852855#8 -31852855#6 -31852855#5 -31852855#4 -31852855#3 -31852855#2 -31852855#1 -31852855#0 232493047#4 232493047#5 207906018#0"/>
    </vehicle>
    <vehicle id="veh13" type="veh_passenger" depart="19.50" departLane="best" departPos="random" departSpeed="max">
        <route edges="207905948#7 -207905948#7 -207905948#6 -207905948#4 -207905948#3 -207905948#1 -207905948#0 1017058798#1 -356882513#1 356882513#1"/>
    </vehicle>
    <vehicle id="veh14" type="veh_passenger" depart="21.00" departLane="best" departPos="random" departSpeed="max">
        <route edges="356882450 -207905956#1 -207905956#0 -950226494#0 -207906018#4 -207905968 31852855#4 31852855#5 31852855#6 31852855#8 31852855#9 31852855#10 31852855#12 31852855#13 31852855#14 31852855#15 1055890429 207905949#0 207905949#1"/>
    </vehicle>
    <vehicle id="veh15" type="veh_passenger" depart="22.50" departLane="best" departPos="random" departSpeed="max">
        <route edges="356882470#1 356882470#2 31852664#2 31852664#3 31852664#4 31852664#5 -207905995#4 -207905995#2 31852855#6 31852855#8 31852855#9 31852855#10 356882478 -207905958 207905950#2 207905950#3 207905950#5 1318162506#0"/>
    </vehicle>
    <vehicle id="veh16" type="veh_passenger" depart="24.00" departLane="best" departPos="random" departSpeed="max">
        <route edges="232493047#5 207906018#0 207906018#1 356882476#0 356882476#1 31852855#2 31852855#3 31852855#4 31852855#5 31852855#6 -1202494987 -207905979 -207905948#4 -207905948#3 -207905948#1 -207905948#0 1017058798#1 1017058801#3 -356969905 -207894448#2"/>
    </vehicle>
    <vehicle id="veh17" type="veh_passenger" depart="25.50" departLane="best" departPos="random" departSpeed="max">
        <route edges="-31852664#2 31852664#2 31852664#3 31852664#4 31852664#5 -207905995#4 -207905995#2 31852855#6 31852855#8 -356882425#1 -356882425#0"/>
    </vehicle>
    <vehicle id="veh18" type="veh_passenger" depart="27.00" departLane="best" departPos="random" departSpeed="max">
        <route edges="-207905950#2 207905958 -356882478 207906005#0 207906005#1 207906005#2 1066324808 -31852664#9 -31852664#8"/>
    </vehicle>
    <vehicle id="veh19" type="veh_passenger" depart="28.50" departLane="best" departPos="random" departSpeed="max">
        <route edges="-207905959 207905948#3 207905948#4 207905948#6 207905948#7 207905948#9 207905950#0 207905950#2 207905950#3 207905950#5 1318162506#0 1318162506#1 1055890426#1 31897466#0 -356688226 -356688279#0"/>
    </vehicle>
    <vehicle id="veh20" type="veh_passenger" depart="30.00" departLane="best" departPos="random" departSpeed="max">
        <route edges="207906001#3 -207906001#3 -207906001#2 -207906001#1 -1202494988#1 -1202494988#0 -356882425#1 -356882425#0 -1066324807#0 -207905948#6 -207905948#4 -207905948#3 -207905948#1 -207905948#0 1017058798#1 232493047#1 232493047#2 -356882462 -356882472#0"/>
    </vehicle>
    <vehicle id="veh21" type="veh_passenger" depart="31.50" departLane="best" departPos="random" departSpeed="max">
        <route edges="-31852855#3 31852855#3 31852855#4 31852855#5 207905995#2 356882485"/>
    </vehicle>
    <vehicle id="veh22" type="veh_passenger" depart="33.00" departLane="best" departPos="random" departSpeed="max">
        <route edges="207906005#2 356882435#1 -207906005#1 -207906005#0 -31852855#10 -31852855#9 -31852855#8 -1202494987 -207905979 207905948#6"/>
    </vehicle>
    <vehicle id="veh23" type="veh_passenger" depart="34.50" departLane="best" departPos="random" departSpeed="max">
        <route edges="-207906018#2 -207906018#1 -207906018#0 207906018#0"/>
    </vehicle>
    <vehicle id="veh24" type="veh_passenger" depart="36.00" departLane="best" departPos="random" departSpeed="max">
        <route edges="-207906017 -1202494986#0 207905948#4 207905948#6 1066324807#0 1066324807#1 -356882479#0"/>
    </vehicle>
    <vehicle id="veh25" type="veh_passenger" depart="37.50" departLane="best" departPos="random" departSpeed="max">
        <route edges="356969905 -356969905 207894448#3 964570787#3 232493047#1 232493047#2 232493047#3 31852855#0 31852855#1 31852855#2 31852855#3 31852855#4 31852855#5 31852855#6 31852855#8 31852855#9 31852855#10 356882478 -207905958 207905950#2 207905950#3 207905950#5"/>
    </vehicle>
    <vehicle id="veh26" type="veh_passenger" depart="39.00" departLane="best" departPos="random" departSpeed="max">
        <route edges="207905950#0 -207905950#0 -207905965#0 -207905948#7 -207905948#6 207905979"/>
    </vehicle>
    <vehicle id="veh27" type="veh_passenger" depart="40.50" departLane="best" departPos="random" departSpeed="max">
        <route edges="-31852664#2 31852664#2 31852664#3 31852664#4 31852664#5 31852664#7 31852664#8 31852664#9 -1202494993#1"/>
    </vehicle>
    <vehicle id="veh28" type="veh_passenger" depart="42.00" departLane="best" departPos="random" departSpeed="max">
        <route edges="-208162504#1 -208162504#0 31852664#9 -356882503 356882435#1 -207906005#1 -207906005#0 -31852855#10 -207905960 -207905965#3 -207905965#2 356882491"/>
    </vehicle>
    <vehicle id="veh29" type="veh_passenger" depart="43.50" departLane="best" departPos="random" departSpeed="max">
        <route edges="356882476#1 31852855#2 31852855#3 31852855#4 31852855#5 31852855#6 31852855#8 31852855#9 31852855#10 31852855#12 31852855#13 31852855#14 31852855#15 1055890429 1055890426#0 1055890426#1 1055890426#2 -356882457#1 -356882457#0 356882492#1 356882492#2 -356882438"/>
    </vehicle>
    <vehicle id="veh30" type="veh_passenger" depart="45.00" departLane="best" departPos="random" departSpeed="max">
        <route edges="207906018#0 207906018#1 207906018#2 207906018#3 207906018#4 207906018#5 950226494#1 31852664#3 31852664#4 -356882485"/>
    </vehicle>
    <vehicle id="veh31" type="veh_passenger" depart="46.50" departLane="best" departPos="random" departSpeed="max">
        <route edges="-31852855#2 31852855#2 31852855#3 31852855#4 31852855#5 31852855#6 31852855#8 31852855#9 31852855#10 31852855#12 31852855#13 -31852855#13"/>
    </vehicle>
    <vehicle id="veh32" type="veh_passenger" depart="48.00" departLane="best" departPos="random" departSpeed="max">
        <route edges="207905950#3 207905953 207905949#2 -356882478 -31852855#10 -31852855#9 -31852855#8 -31852855#6 -31852855#5"/>
    </vehicle>
    <vehicle id="veh33" type="veh_passenger" depart="49.50" departLane="best" departPos="random" departSpeed="max">
        <route edges="207905961 207906018#3 207906018#4 207906018#5 950226494#1 31852664#3 31852664#4 31852664#5 -208162476 356882455"/>
    </vehicle>
    <vehicle id="veh34" type="veh_passenger" depart="51.00" departLane="best" departPos="random" departSpeed="max">
        <route edges="-356969905 207894448#3 964570787#3 232493047#1 232493047#2 232493047#3 232493047#4 232493047#5 232493047#6 1202494991#0 1202494991#1 -207905956#2 -207905956#1 -207905956#0 950226494#1 -31852664#2"/>
    </vehicle>
    <vehicle id="veh35" type="veh_passenger" depart="52.50" departLane="best" departPos="random" departSpeed="max">
        <route edges="964570787#3 232493047#1 232493047#2 232493047#3 31852855#0 31852855#1 31852855#2 31852855#3 31852855#4 31852855#5 31852855#6 31852855#8 31852855#9 31852855#10 31852855#12 31852855#13 31852855#14 31852855#15 1055890429 1055890426#0 1055890426#1 31897466#0 -356688226 356688279#1 1055890425#3 1055890425#4 1055890425#5"/>
    </vehicle>
    <vehicle id="veh36" type="veh_passenger" depart="54.00" departLane="best" departPos="random" departSpeed="max">
        <route edges="-207905956#0 -950226494#0 -207906018#4 -207905968 31852855#4 31852855#5 31852855#6 -1202494987 -207905979 -207905948#4 -207905948#3 -207905948#1 -207905948#0 1017058798#1 1103148990#1 964570787#2 -207894448#3"/>
    </vehicle>
    <vehicle id="veh37" type="veh_passenger" depart="55.50" departLane="best" departPos="random" departSpeed="max">
        <route edges="-207905964#0 -207905950#5 -207905950#3 -207905950#2 -207905950#0 207905965#2 207905965#3 207905949#6"/>
    </vehicle>
    <vehicle id="veh38" type="veh_passenger" depart="57.00" departLane="best" departPos="random" departSpeed="max">
        <route edges="356882425#0 207905949#7 -356882502#1 207905995#0 -356882495"/>
    </vehicle>
    <vehicle id="veh39" type="veh_passenger" depart="58.50" departLane="best" departPos="random" departSpeed="max">
        <route edges="-207905949#0 207905949#0 207905949#1 207905949#2 207905949#4 -207905965#3 -356882479#1"/>
    </vehicle>
    <vehicle id="veh40" type="veh_passenger" depart="60.00" departLane="best" departPos="random" departSpeed="max">
        <route edges="964570787#2 964570787#3 232493047#1 232493047#2 232493047#3 31852855#0 31852855#1 31852855#2 31852855#3 31852855#4 31852855#5 207905995#2 207905995#4 31852664#7 31852664#8 31852664#9 31852664#11 31852664#12 -1096223642 207905972#0 -356882481#1 -356882481#0 1055890428#1 1055890428#2"/>
    </vehicle>
    <vehicle id="veh41" type="veh_passenger" depart="61.50" departLane="best" departPos="random" departSpeed="max">
        <route edges="356882756 31852664#0 31852664#1 31852664#2 31852664#3 31852664#4 31852664#5 -207905995#4 -207905995#2 31852855#6 31852855#8"/>
    </vehicle>
    <vehicle id="veh42" type="veh_passenger" depart="63.00" departLane="best" departPos="random" departSpeed="max">
        <route edges="-1144693906 1055890425#4 1055890425#5 1055890425#6 -31852855#15 -31852855#14 -31852855#13 -31852855#12 207906005#0 207906005#1"/>
    </vehicle>
    <vehicle id="veh43" type="veh_passenger" depart="64.50" departLane="best" departPos="random" departSpeed="max">
        <route edges="208162484#2 -208162484#2 208162476 -207905995#4 -207905995#2 31852855#6 -1202494987 -207905979 207905948#6 1066324807#0"/>
    </vehicle>
    <vehicle id="veh44" type="veh_passenger" depart="66.00" departLane="best" departPos="random" departSpeed="max">
        <route edges="-31852855#3 31852855#3 31852855#4 31852855#5 31852855#6 31852855#8 31852855#9 31852855#10 356882478 -207905958 207905950#2 207905950#3 207905950#5"/>
    </vehicle>
    <vehicle id="veh45" type="veh_passenger" depart="67.50" departLane="best" departPos="random" departSpeed="max">
        <route edges="-207905964#1 356882429 1318162506#1 1055890426#1 1055890426#2 -356882457#1 -356882457#0 356882492#1 -356882501#1"/>
    </vehicle>
    <vehicle id="veh46" type="veh_passenger" depart="69.00" departLane="best" departPos="random" departSpeed="max">
        <route edges="1055890426#2 -356882457#1 -356882457#0 356882492#1 356882492#2 356882492#3 356882508#1 -356882509#1 -356882497 356882497"/>
    </vehicle>
    <vehicle id="veh47" type="veh_passenger" depart="70.50" departLane="best" departPos="random" departSpeed="max">
        <route edges="356882476#1 31852855#2 31852855#3 31852855#4 31852855#5 -31852855#5"/>
    </vehicle>
    <vehicle id="veh48" type="veh_passenger" depart="72.00" departLane="best" departPos="random" departSpeed="max">
        <route edges="1202494993#0 1202494993#1 -31852664#9 -31852664#8 -31852664#7 -31852664#5 -31852664#4 -31852664#3 -950226494#1 -950226494#0 -207906018#4"/>
    </vehicle>
    <vehicle id="veh49" type="veh_passenger" depart="73.50" departLane="best" departPos="random" departSpeed="max">
        <route edges="-356882428 -207906001#1 -207906001#0 -207906005#1 -207906005#0 356882478 -207905958 207905950#2 207905950#3 207905950#5"/>
    </vehicle>
    <vehicle id="veh50" type="veh_passenger" depart="75.00" departLane="best" departPos="random" departSpeed="max">
        <route edges="207905972#1 -31852855#14 -31852855#13 -31852855#12 -31852855#10 -31852855#9 1202494988#0 1202494988#1 207906001#1 207906001#2 207906001#3 207906001#5 -207906001#5"/>
    </vehicle>
    <vehicle id="veh51" type="veh_passenger" depart="76.50" departLane="best" departPos="random" departSpeed="max">
        <route edges="31852855#3 31852855#4 31852855#5 31852855#6 31852855#8 -356882425#1 -356882425#0 1066324807#1"/>
    </vehicle>
    <vehicle id="veh52" type="veh_passenger" depart="78.00" departLane="best" departPos="random" departSpeed="max">
        <route edges="356688226 -31897466#0 1055890425#2 1055890425#3 1055890425#4 1055890425#5 1055890425#6 -31852855#15 -31852855#14 -31852855#13 207905986 31852664#12 -1096223642 207905972#0 -356882481#1 -356882481#0 1055890428#1 1055890428#2"/>
    </vehicle>
    <vehicle id="veh53" type="veh_passenger" depart="79.50" departLane="best" departPos="random" departSpeed="max">
        <route edges="-1066303201 1055890425#6 -31852855#15 -31852855#14 -31852855#13 -31852855#12 -31852855#10 -31852855#9 -31852855#8 -31852855#6 -31852855#5 -31852855#4 207905968 207906018#4 207906018#5 207905956#0 207905956#1 -356882450"/>
    </vehicle>
    <vehicle id="veh54" type="veh_passenger" depart="81.00" departLane="best" departPos="random" departSpeed="max">
        <route edges="-1202494988#0 -356882425#1 -356882425#0 1066324807#1 356882479#1"/>
    </vehicle>
    <vehicle id="veh55" type="veh_passenger" depart="82.50" departLane="best" departPos="random" departSpeed="max">
        <route edges="356882478 207905949#4 207905960 -31852855#9 -31852855#8 -31852855#6 -31852855#5 -31852855#4 -31852855#3 -31852855#2 -31852855#1 31852855#1"/>
    </vehicle>
    <vehicle id="veh56" type="veh_passenger" depart="84.00" departLane="best" departPos="random" departSpeed="max">
        <route edges="-356882452#0 356882476#1 31852855#2 31852855#3 31852855#4 31852855#5 31852855#6 -1202494987 -207905979 -207905948#4"/>
    </vehicle>
    <vehicle id="veh57" type="veh_passenger" depart="85.50" departLane="best" departPos="random" departSpeed="max">
        <route edges="356882478 -207905949#2 -207905949#1 -207905949#0 1055890426#0 1055890426#1 1055890426#2 -356882457#1 -356882457#0 356882492#1 356882492#2"/>
    </vehicle>
    <vehicle id="veh58" type="veh_passenger" depart="87.00" departLane="best" departPos="random" departSpeed="max">
        <route edges="-207905950#5 -207905950#3 -207905950#2 207905958 -356882478 -31852855#10 -31852855#9 -31852855#8 -31852855#6 207905995#2 207905995#4 -31852664#5 -31852664#4 -31852664#3 -950226494#1 -950226494#0"/>
    </vehicle>
    <vehicle id="veh59" type="veh_passenger" depart="88.50" departLane="best" departPos="random" departSpeed="max">
        <route edges="-207905949#4 -356882478 -31852855#10 -31852855#9 -31852855#8 -31852855#6 207905995#2 207905995#4 -208162476 208162484#2 208162484#3 208162484#4"/>
    </vehicle>
    <vehicle id="veh60" type="veh_passenger" depart="90.00" departLane="best" departPos="random" departSpeed="max">
        <route edges="31852855#5 31852855#6 -1202494987 -207905979"/>
    </vehicle>
    <vehicle id="veh61" type="veh_passenger" depart="91.50" departLane="best" departPos="random" departSpeed="max">
        <route edges="1096223642 -31852664#12 -1202494992 -31852855#12 -31852855#10 -207905960 -207905965#3 -207905965#2 -207905965#0 -207905948#7 -207905948#6 -207905948#4 -207905948#3 -207905948#1 -207905948#0 1017058798#1 1103148990#1"/>
    </vehicle>
    <vehicle id="veh62" type="veh_passenger" depart="93.00" departLane="best" departPos="random" departSpeed="max">
        <route edges="-31852855#2 31852855#2 31852855#3 31852855#4 31852855#5 31852855#6 31852855#8 31852855#9 31852855#10 31852855#12 31852855#13 31852855#14 31852855#15 1055890429 1055890426#0 1055890426#1 31897466#0 -356688226 356688279#1"/>
    </vehicle>
    <vehicle id="veh63" type="veh_passenger" depart="94.50" departLane="best" departPos="random" departSpeed="max">
        <route edges="1017058801#1 232493047#1 232493047#2 232493047#3 31852855#0 31852855#1 31852855#2 31852855#3 31852855#4 31852855#5 31852855#6 31852855#8 31852855#9 31852855#10 31852855#12 207905986 -31852664#11"/>
    </vehicle>
    <vehicle id="veh64" type="veh_passenger" depart="96.00" departLane="best" departPos="random" departSpeed="max">
        <route edges="207905948#9 207905965#2 207905965#3 207905960 -31852855#9 -31852855#8 -31852855#6 -31852855#5 -31852855#4 -31852855#3 -31852855#2 -31852855#1 -31852855#0 232493047#4 232493047#5 207906018#0"/>
    </vehicle>
    <vehicle id="veh65" type="veh_passenger" depart="97.50" departLane="best" departPos="random" departSpeed="max">
        <route edges="-208162485#1 -208162485#0 -31852664#12 -31852664#11 -31852664#9 -31852664#8 -31852664#7 -207905995#4 -207905995#2 -31852855#5 -31852855#4 -31852855#3 -31852855#2 -31852855#1 -356882436"/>
    </vehicle>
    <vehicle id="veh66" type="veh_passenger" depart="99.00" departLane="best" departPos="random" departSpeed="max">
        <route edges="964570787#2 964570787#3 232493047#1 232493047#2 232493047#3 232493047#4 232493047#5 232493047#6 1202494991#0 1202494991#1 -207905956#2 207905956#2"/>
    </vehicle>
    <vehicle id="veh67" type="veh_passenger" depart="100.50" departLane="best" departPos="random" departSpeed="max">
        <route edges="-207905968 31852855#4 31852855#5 207905995#2 207905995#4 -31852664#5 -31852664#4"/>
    </vehicle>
    <vehicle id="veh68" type="veh_passenger" depart="102.00" departLane="best" departPos="random" departSpeed="max">
        <route edges="-31852664#3 -31852664#2"/>
    </vehicle>
    <vehicle id="veh69" type="veh_passenger" depart="103.50" departLane="best" departPos="random" departSpeed="max">
        <route edges="-207905949#4 207905949#4 -207905965#3 -207905965#2 207905950#0"/>
    </vehicle>
    <vehicle id="veh70" type="veh_passenger" depart="105.00" departLane="best" departPos="random" departSpeed="max">
        <route edges="-31852664#2 31852664#2 31852664#3 31852664#4 31852664#5 -207905995#4 -207905995#2 31852855#6 -1202494987 -207905979 -207905948#4 -207905948#3 -207905948#1 -207905948#0 1017058798#1 232493047#1 232493047#2 -356882462 356882462"/>
    </vehicle>
    <vehicle id="veh71" type="veh_passenger" depart="106.50" departLane="best" departPos="random" departSpeed="max">
        <route edges="356882469 1055890428#2 1055890429 207905949#0 207905949#1 207905949#2 -207905949#2"/>
    </vehicle>
    <vehicle id="veh72" type="veh_passenger" depart="108.00" departLane="best" departPos="random" departSpeed="max">
        <route edges="-31852664#7 -207905995#4 -207905995#2 31852855#6 31852855#8 -356882425#1 -356882425#0 1066324807#1 -356882491 207905965#2"/>
    </vehicle>
    <vehicle id="veh73" type="veh_passenger" depart="109.50" departLane="best" departPos="random" departSpeed="max">
        <route edges="-31852664#0 -356882756 1202494991#1 -207905956#2 -207905956#1 -207905956#0 -950226494#0 -207906018#4 -207905968 31852855#4 31852855#5 -207905995#1 -207905995#0"/>
    </vehicle>
    <vehicle id="veh74" type="veh_passenger" depart="111.00" departLane="best" departPos="random" departSpeed="max">
        <route edges="1066324808 -31852664#9 -31852664#8 -31852664#7 -207905995#4 -207905995#2 -31852855#5 -31852855#4 -31852855#3 -31852855#2 -31852855#1 -31852855#0 232493047#4"/>
    </vehicle>
    <vehicle id="veh75" type="veh_passenger" depart="112.50" departLane="best" departPos="random" departSpeed="max">
        <route edges="356882432 207905964#0 207905964#1 207905949#1 207905949#2 -356882478 -31852855#10 -31852855#9 -31852855#8 -31852855#6 207905995#2 207905995#4 -208162476 -208162484#0"/>
    </vehicle>
    <vehicle id="veh76" type="veh_passenger" depart="114.00" departLane="best" departPos="random" departSpeed="max">
        <route edges="-207905956#2 -207905956#1 -207905956#0 -950226494#0 -207906018#4 -207905968 31852855#4 31852855#5 31852855#6 31852855#8 31852855#9 31852855#10 31852855#12 31852855#13 31852855#14 31852855#15 1055890429 1055890426#0 1055890426#1 1055890426#2 -356882457#1 -356882457#0 356882492#1 -356882501#1 -356882501#0"/>
    </vehicle>
    <vehicle id="veh77" type="veh_passenger" depart="115.50" departLane="best" departPos="random" departSpeed="max">
        <route edges="1017058801#3 -356969905 207894448#3 964570787#3 232493047#1 232493047#2 232493047#3 31852855#0 31852855#1 31852855#2 31852855#3 31852855#4 31852855#5 207905995#2 207905995#4 31852664#7 207906001#3 -208162482#1 -356882761"/>
    </vehicle>
    <vehicle id="veh78" type="veh_passenger" depart="117.00" departLane="best" departPos="random" departSpeed="max">
        <route edges="31852664#4 31852664#5 31852664#7 31852664#8 31852664#9 31852664#11 31852664#12 31852664#14 -208162487#0 207905966#1"/>
    </vehicle>
    <vehicle id="veh79" type="veh_passenger" depart="118.50" departLane="best" departPos="random" departSpeed="max">
        <route edges="356969899#1 964570787#2 964570787#3 232493047#1 232493047#2 232493047#3 232493047#4 232493047#5 232493047#6 1202494991#0 1202494991#1 -207905956#2"/>
    </vehicle>
    <vehicle id="veh80" type="veh_passenger" depart="120.00" departLane="best" departPos="random" departSpeed="max">
        <route edges="-432304074 356882470#1 356882470#2 31852664#2 31852664#3 31852664#4 31852664#5 -207905995#4 -207905995#2 31852855#6 31852855#8 31852855#9 31852855#10 31852855#12 31852855#13 31852855#14 31852855#15 1055890429 1055890426#0 1055890426#1 1055890426#2 -356882457#1"/>
    </vehicle>
    <vehicle id="veh81" type="veh_passenger" depart="121.50" departLane="best" departPos="random" departSpeed="max">
        <route edges="356882470#1 356882470#2 31852664#2 31852664#3 31852664#4 31852664#5 31852664#7 31852664#8 31852664#9 31852664#11 31852664#12 -1096223642 207905972#0 207905972#1 -31852855#14 -31852855#13"/>
    </vehicle>
    <vehicle id="veh82" type="veh_passenger" depart="123.00" departLane="best" departPos="random" departSpeed="max">
        <route edges="-208162484#2 208162476 -207905995#4 -207905995#2 31852855#6 31852855#8 31852855#9 31852855#10 31852855#12 31852855#13 31852855#14 31852855#15 1055890429 1055890426#0 1055890426#1 1055890426#2 -356882457#1 -356882457#0 356882492#1 356882492#2 356882492#3 -356882508#0"/>
    </vehicle>
    <vehicle id="veh83" type="veh_passenger" depart="124.50" departLane="best" departPos="random" departSpeed="max">
        <route edges="1017058801#1 232493047#1 232493047#2 232493047#3 31852855#0 31852855#1 31852855#2 31852855#3 31852855#4 31852855#5 31852855#6 31852855#8 31852855#9 31852855#10 31852855#12 31852855#13 31852855#14 31852855#15 1055890429 1055890426#0 1055890426#1 31897466#0 -356688226 -356688279#0"/>
    </vehicle>
    <vehicle id="veh84" type="veh_passenger" depart="126.00" departLane="best" departPos="random" departSpeed="max">
        <route edges="1055890425#5 1055890425#6 -31852855#15 -31852855#14 -31852855#13 -31852855#12 -31852855#10 -31852855#9 -31852855#8 31852855#8"/>
    </vehicle>
    <vehicle id="veh85" type="veh_passenger" depart="127.50" departLane="best" departPos="random" departSpeed="max">
        <route edges="207905949#4 -207905965#3 -207905965#2 -207905965#0 -207905948#7 -207905948#6 -207905948#4 -207905948#3 -207905948#1 -207905948#0"/>
    </vehicle>
    <vehicle id="veh86" type="veh_passenger" depart="129.00" departLane="best" departPos="random" departSpeed="max">
        <route edges="964570787#3 232493047#1 232493047#2 232493047#3 31852855#0 31852855#1 31852855#2 31852855#3 31852855#4 31852855#5 31852855#6 31852855#8 31852855#9 31852855#10 31852855#12"/>
    </vehicle>
    <vehicle id="veh87" type="veh_passenger" depart="130.50" departLane="best" departPos="random" departSpeed="max">
        <route edges="356882754 -208162484#2 208162476 -207905995#4 -207905995#2 31852855#6 31852855#8 31852855#9 31852855#10 356882478"/>
    </vehicle>
    <vehicle id="veh88" type="veh_passenger" depart="132.00" departLane="best" departPos="random" departSpeed="max">
        <route edges="356882458 -207905950#3 -207905950#2 -207905950#0 -207905965#0 -207905948#7 -207905948#6 -207905948#4 -207905948#3 -207905948#1 -207906017"/>
    </vehicle>
    <vehicle id="veh89" type="veh_passenger" depart="133.50" departLane="best" departPos="random" departSpeed="max">
        <route edges="1202494986#1 -207905948#0 1017058798#1 232493047#1 232493047#2 232493047#3 31852855#0 31852855#1 31852855#2 31852855#3 31852855#4 31852855#5 207905995#2 207905995#4 31852664#7 31852664#8 31852664#9 31852664#11 31852664#12 -31852664#12"/>
    </vehicle>
    <vehicle id="veh90" type="veh_passenger" depart="135.00" departLane="best" departPos="random" departSpeed="max">
        <route edges="-432304074 356882470#1 356882470#2 31852664#2 31852664#3 31852664#4 31852664#5 -207905995#4 -207905995#2 31852855#6 -1202494987 -207905979 -207905948#4"/>
    </vehicle>
    <vehicle id="veh91" type="veh_passenger" depart="136.50" departLane="best" departPos="random" departSpeed="max">
        <route edges="-31852855#2 31852855#2 31852855#3 31852855#4 31852855#5 31852855#6 -1202494987 -207905979 -207905948#4 -207905948#3 -207905948#1 -207905948#0 1017058798#1 232493047#1 232493047#2 232493047#3"/>
    </vehicle>
    <vehicle id="veh92" type="veh_passenger" depart="138.00" departLane="best" departPos="random" departSpeed="max">