<?xml version="1.0" encoding="UTF-8"?>

<!-- generated on 2026-04-13 04:30:49.087340 by Eclipse SUMO randomTrips.py v1_26_0+0000-fa7df22d7f1
<configuration>
    <net-file value="map.net.xml"/>
    <route-file value="traffic.rou.xml"/>
    <prefix value="veh"/>
    <trip-attributes value="departLane=&quot;best&quot; departSpeed=&quot;max&quot; departPos=&quot;random&quot;"/>
    <vehicle-class value="passenger"/>
    <edge-permission value="passenger"/>
    <min-distance value="50.0"/>
    <period value="1.5"/>
</configuration>
-->

<routes xmlns:xsi="http://www.w3.org/2001/XMLSchema-instance" xsi:noNamespaceSchemaLocation="http://sumo.dlr.de/xsd/routes_file.xsd">
    <vType id="veh_passenger" vClass="passenger"/>
    <trip id="veh0" depart="0.00" from="207906001#5" to="-1202494991#1" departLane="best" departSpeed="max" departPos="random" type="veh_passenger"/>
    <trip id="veh1" depart="1.50" from="-31852855#6" to="-31852664#4" departLane="best" departSpeed="max" departPos="random" type="veh_passenger"/>
    <trip id="veh2" depart="3.00" from="31852664#8" to="207905968" departLane="best" departSpeed="max" departPos="random" type="veh_passenger"/>
    <trip id="veh3" depart="4.50" from="356882482" to="-207905950#3" departLane="best" departSpeed="max" departPos="random" type="veh_passenger"/>
    <trip id="veh4" depart="6.00" from="1017058801#1" to="-1202494993#0" departLane="best" departSpeed="max" departPos="random" type="veh_passenger"/>
    <trip id="veh5" depart="7.50" from="-31852664#11" to="1055890425#4" departLane="best" departSpeed="max" departPos="random" type="veh_passenger"/>
    <trip id="veh6" depart="9.00" from="-1202494991#1" to="-208162485#0" departLane="best" departSpeed="max" departPos="random" type="veh_passenger"/>
    <trip id="veh7" depart="10.50" from="207906005#2" to="1096223642" departLane="best" departSpeed="max" departPos="random" type="veh_passenger"/>
    <trip id="veh8" depart="12.00" from="356882433" to="-1096223642" departLane="best" departSpeed="max" departPos="random" type="veh_passenger"/>
    <trip id="veh9" depart="13.50" from="-356882478" to="-207906001#6" departLane="best" departSpeed="max" departPos="random" type="veh_passenger"/>
    <trip id="veh10" depart="15.00" from="356882509#1" to="-356882457#0" departLane="best" departSpeed="max" departPos="random" type="veh_passenger"/>
    <trip id="veh11" depart="16.50" from="356882458" to="207905948#3" departLane="best" departSpeed="max" departPos="random" type="veh_passenger"/>
    <trip id="veh12" depart="18.00" from="356882432" to="207906018#0" departLane="best" departSpeed="max" departPos="random" type="veh_passenger"/>
    <trip id="veh13" depart="19.50" from="207905948#7" to="356882513#1" departLane="best" departSpeed="max" departPos="random" type="veh_passenger"/>
    <trip id="veh14" depart="21.00" from="356882450" to="207905949#1" departLane="best" departSpeed="max" departPos="random" type="veh_passenger"/>
    <trip id="veh15" depart="22.50" from="356882470#1" to="1318162506#0" departLane="best" departSpeed="max" departPos="random" type="veh_passenger"/>
    <trip id="veh16" depart="24.00" from="232493047#5" to="-207894448#2" departLane="best" departSpeed="max" departPos="random" type="veh_passenger"/>
    <trip id="veh17" depart="25.50" from="-31852664#2" to="-356882425#0" departLane="best" departSpeed="max" departPos="random" type="veh_passenger"/>
    <trip id="veh18" depart="27.00" from="-207905950#2" to="-31852664#8" departLane="best" departSpeed="max" departPos="random" type="veh_passenger"/>
    <trip id="veh19" depart="28.50" from="-207905959" to="-356688279#0" departLane="best" departSpeed="max" departPos="random" type="veh_passenger"/>
    <trip id="veh20" depart="30.00" from="207906001#3" to="-356882472#0" departLane="best" departSpeed="max" departPos="random" type="veh_passenger"/>
    <trip id="veh21" depart="31.50" from="-31852855#3" to="356882485" departLane="best" departSpeed="max" departPos="random" type="veh_passenger"/>
    <trip id="veh22" depart="33.00" from="207906005#2" to="207905948#6" departLane="best" departSpeed="max" departPos="random" type="veh_passenger"/>
    <trip id="veh23" depart="34.50" from="-207906018#2" to="207906018#0" departLane="best" departSpeed="max" departPos="random" type="veh_passenger"/>
    <trip id="veh24" depart="36.00" from="-207906017" to="-356882479#0" departLane="best" departSpeed="max" departPos="random" type="veh_passenger"/>
    <trip id="veh25" depart="37.50" from="356969905" to="207905950#5" departLane="best" departSpeed="max" departPos="random" type="veh_passenger"/>
    <trip id="veh26" depart="39.00" from="207905950#0" to="207905979" departLane="best" departSpeed="max" departPos="random" type="veh_passenger"/>
    <trip id="veh27" depart="40.50" from="-31852664#2" to="-1202494993#1" departLane="best" departSpeed="max" departPos="random" type="veh_passenger"/>
    <trip id="veh28" depart="42.00" from="-208162504#1" to="356882491" departLane="best" departSpeed="max" departPos="random" type="veh_passenger"/>
    <trip id="veh29" depart="43.50" from="356882476#1" to="-356882438" departLane="best" departSpeed="max" departPos="random" type="veh_passenger"/>
    <trip id="veh30" depart="45.00" from="207906018#0" to="-356882485" departLane="best" departSpeed="max" departPos="random" type="veh_passenger"/>
    <trip id="veh31" depart="46.50" from="-31852855#2" to="-31852855#13" departLane="best" departSpeed="max" departPos="random" type="veh_passenger"/>
    <trip id="veh32" depart="48.00" from="207905950#3" to="-31852855#5" departLane="best" departSpeed="max" departPos="random" type="veh_passenger"/>
    <trip id="veh33" depart="49.50" from="207905961" to="356882455" departLane="best" departSpeed="max" departPos="random" type="veh_passenger"/>
    <trip id="veh34" depart="51.00" from="-356969905" to="-31852664#2" departLane="best" departSpeed="max" departPos="random" type="veh_passenger"/>
    <trip id="veh35" depart="52.50" from="964570787#3" to="1055890425#5" departLane="best" departSpeed="max" departPos="random" type="veh_passenger"/>
    <trip id="veh36" depart="54.00" from="-207905956#0" to="-207894448#3" departLane="best" departSpeed="max" departPos="random" type="veh_passenger"/>
    <trip id="veh37" depart="55.50" from="-207905964#0" to="207905949#6" departLane="best" departSpeed="max" departPos="random" type="veh_passenger"/>
    <trip id="veh38" depart="57.00" from="356882425#0" to="-356882495" departLane="best" departSpeed="max" departPos="random" type="veh_passenger"/>
    <trip id="veh39" depart="58.50" from="-207905949#0" to="-356882479#1" departLane="best" departSpeed="max" departPos="random" type="veh_passenger"/>
    <trip id="veh40" depart="60.00" from="964570787#2" to="1055890428#2" departLane="best" departSpeed="max" departPos="random" type="veh_passenger"/>
    <trip id="veh41" depart="61.50" from="356882756" to="31852855#8" departLane="best" departSpeed="max" departPos="random" type="veh_passenger"/>
    <trip id="veh42" depart="63.00" from="-1144693906" to="207906005#1" departLane="best" departSpeed="max" departPos="random" type="veh_passenger"/>
    <trip id="veh43" depart="64.50" from="208162484#2" to="1066324807#0" departLane="best" departSpeed="max" departPos="random" type="veh_passenger"/>
    <trip id="veh44" depart="66.00" from="-31852855#3" to="207905950#5" departLane="best" departSpeed="max" departPos="random" type="veh_passenger"/>
    <trip id="veh45" depart="67.50" from="-207905964#1" to="-356882501#1" departLane="best" departSpeed="max" departPos="random" type="veh_passenger"/>
    <trip id="veh46" depart="69.00" from="1055890426#2" to="356882497" departLane="best" departSpeed="max" departPos="random" type="veh_passenger"/>
    <trip id="veh47" depart="70.50" from="356882476#1" to="-31852855#5" departLane="best" departSpeed="max" departPos="random" type="veh_passenger"/>
    <trip id="veh48" depart="72.00" from="1202494993#0" to="-207906018#4" departLane="best" departSpeed="max" departPos="random" type="veh_passenger"/>
    <trip id="veh49" depart="73.50" from="-356882428" to="207905950#5" departLane="best" departSpeed="max" departPos="random" type="veh_passenger"/>
    <trip id="veh50" depart="75.00" from="207905972#1" to="-207906001#5" departLane="best" departSpeed="max" departPos="random" type="veh_passenger"/>
    <trip id="veh51" depart="76.50" from="31852855#3" to="1066324807#1" departLane="best" departSpeed="max" departPos="random" type="veh_passenger"/>
    <trip id="veh52" depart="78.00" from="356688226" to="1055890428#2" departLane="best" departSpeed="max" departPos="random" type="veh_passenger"/>
    <trip id="veh53" depart="79.50" from="-1066303201" to="-356882450" departLane="best" departSpeed="max" departPos="random" type="veh_passenger"/>
    <trip id="veh54" depart="81.00" from="-1202494988#0" to="356882479#1" departLane="best" departSpeed="max" departPos="random" type="veh_passenger"/>
    <trip id="veh55" depart="82.50" from="356882478" to="31852855#1" departLane="best" departSpeed="max" departPos="random" type="veh_passenger"/>
    <trip id="veh56" depart="84.00" from="-356882452#0" to="-207905948#4" departLane="best" departSpeed="max" departPos="random" type="veh_passenger"/>
    <trip id="veh57" depart="85.50" from="356882478" to="356882492#2" departLane="best" departSpeed="max" departPos="random" type="veh_passenger"/>
    <trip id="veh58" depart="87.00" from="-207905950#5" to="-950226494#0" departLane="best" departSpeed="max" departPos="random" type="veh_passenger"/>
    <trip id="veh59" depart="88.50" from="-207905949#4" to="208162484#4" departLane="best" departSpeed="max" departPos="random" type="veh_passenger"/>
    <trip id="veh60" depart="90.00" from="31852855#5" to="-207905979" departLane="best" departSpeed="max" departPos="random" type="veh_passenger"/>
    <trip id="veh61" depart="91.50" from="1096223642" to="1103148990#1" departLane="best" departSpeed="max" departPos="random" type="veh_passenger"/>
    <trip id="veh62" depart="93.00" from="-31852855#2" to="356688279#1" departLane="best" departSpeed="max" departPos="random" type="veh_passenger"/>
    <trip id="veh63" depart="94.50" from="1017058801#1" to="-31852664#11" departLane="best" departSpeed="max" departPos="random" type="veh_passenger"/>
    <trip id="veh64" depart="96.00" from="207905948#9" to="207906018#0" departLane="best" departSpeed="max" departPos="random" type="veh_passenger"/>
    <trip id="veh65" depart="97.50" from="-208162485#1" to="-356882436" departLane="best" departSpeed="max" departPos="random" type="veh_passenger"/>
    <trip id="veh66" depart="99.00" from="964570787#2" to="207905956#2" departLane="best" departSpeed="max" departPos="random" type="veh_passenger"/>
    <trip id="veh67" depart="100.50" from="-207905968" to="-31852664#4" departLane="best" departSpeed="max" departPos="random" type="veh_passenger"/>
    <trip id="veh68" depart="102.00" from="-31852664#3" to="-31852664#2" departLane="best" departSpeed="max" departPos="random" type="veh_passenger"/>
    <trip id="veh69" depart="103.50" from="-207905949#4" to="207905950#0" departLane="best" departSpeed="max" departPos="random" type="veh_passenger"/>
    <trip id="veh70" depart="105.00" from="-31852664#2" to="356882462" departLane="best" departSpeed="max" departPos="random" type="veh_passenger"/>
    <trip id="veh71" depart="106.50" from="356882469" to="-207905949#2" departLane="best" departSpeed="max" departPos="random" type="veh_passenger"/>
    <trip id="veh72" depart="108.00" from="-31852664#7" to="207905965#2" departLane="best" departSpeed="max" departPos="random" type="veh_passenger"/>
    <trip id="veh73" depart="109.50" from="-31852664#0" to="-207905995#0" departLane="best" departSpeed="max" departPos="random" type="veh_passenger"/>
    <trip id="veh74" depart="111.00" from="1066324808" to="232493047#4" departLane="best" departSpeed="max" departPos="random" type="veh_passenger"/>
    <trip id="veh75" depart="112.50" from="356882432" to="-208162484#0" departLane="best" departSpeed="max" departPos="random" type="veh_passenger"/>
    <trip id="veh76" depart="114.00" from="-207905956#2" to="-356882501#0" departLane="best" departSpeed="max" departPos="random" type="veh_passenger"/>
    <trip id="veh77" depart="115.50" from="1017058801#3" to="-356882761" departLane="best" departSpeed="max" departPos="random" type="veh_passenger"/>
    <trip id="veh78" depart="117.00" from="31852664#4" to="207905966#1" departLane="best" departSpeed="max" departPos="random" type="veh_passenger"/>
    <trip id="veh79" depart="118.50" from="356969899#1" to="-207905956#2" departLane="best" departSpeed="max" departPos="random" type="veh_passenger"/>
    <trip id="veh80" depart="120.00" from="-432304074" to="-356882457#1" departLane="best" departSpeed="max" departPos="random" type="veh_passenger"/>
    <trip id="veh81" depart="121.50" from="356882470#1" to="-31852855#13" departLane="best" departSpeed="max" departPos="random" type="veh_passenger"/>
    <trip id="veh82" depart="123.00" from="-208162484#2" to="-356882508#0" departLane="best" departSpeed="max" departPos="random" type="veh_passenger"/>
    <trip id="veh83" depart="124.50" from="1017058801#1" to="-356688279#0" departLane="best" departSpeed="max" departPos="random" type="veh_passenger"/>
    <trip id="veh84" depart="126.00" from="1055890425#5" to="31852855#8" departLane="best" departSpeed="max" departPos="random" type="veh_passenger"/>
    <trip id="veh85" depart="127.50" from="207905949#4" to="-207905948#0" departLane="best" departSpeed="max" departPos="random" type="veh_passenger"/>
    <trip id="veh86" depart="129.00" from="964570787#3" to="31852855#12" departLane="best" departSpeed="max" departPos="random" type="veh_passenger"/>
    <trip id="veh87" depart="130.50" from="356882754" to="356882478" departLane="best" departSpeed="max" departPos="random" type="veh_passenger"/>
    <trip id="veh88" depart="132.00" from="356882458" to="-207906017" departLane="best" departSpeed="max" departPos="random" type="veh_passenger"/>
    <trip id="veh89" depart="133.50" from="1202494986#1" to="-31852664#12" departLane="best" departSpeed="max" departPos="random" type="veh_passenger"/>
    <trip id="veh90" depart="135.00" from="-432304074" to="-207905948#4" departLane="best" departSpeed="max" departPos="random" type="veh_passenger"/>
    <trip id="veh91" depart="136.50" from="-31852855#2" to="232493047#3" departLane="best" departSpeed="max" departPos="random" type="veh_passenger"/>
    <trip id="veh92" depart="138.00" from="1055890428#0" to="-356882495" departLane="best" departSpeed="max" departPos="random" type="veh_passenger"/>
    <trip id="veh93" depart="139.50" from="207905949#7" to="207906005#0" departLane="best" departSpeed="max" departPos="random" type="veh_passenger"/>
    <trip id="veh94" depart="141.00" from="-207906001#7" to="-356882428" departLane="best" departSpeed="max" departPos="random" type="veh_passenger"/>
    <trip id="veh95" depart="142.50" from="356882754" to="1318162506#0" departLane="best" departSpeed="max" departPos="random" type="veh_passenger"/>
    <trip id="veh96" depart="144.00" from="207905949#0" to="208162476" departLane="best" departSpeed="max" departPos="random" type="veh_passenger"/>
    <trip id="veh97" depart="145.50" from="1202494993#1" to="31852855#4" departLane="best" departSpeed="max" departPos="random" type="veh_passenger"/>
    <trip id="veh98" depart="147.00" from="-207906005#0" to="356882501#1" departLane="best" departSpeed="max" departPos="random" type="veh_passenger"/>
    <trip id="veh99" depart="148.50" from="-207905950#2" to="-208162482#0" departLane="best" departSpeed="max" departPos="random" type="veh_passenger"/>
    <trip id="veh100" depart="150.00" from="207905965#3" to="207905968" departLane="best" departSpeed="max" departPos="random" type="veh_passenger"/>
    <trip id="veh101" depart="151.50" from="-31852664#5" to="-207905965#2" departLane="best" departSpeed="max" departPos="random" type="veh_passenger"/>
    <trip id="veh102" depart="153.00" from="356882481#1" to="-31852855#13" departLane="best" departSpeed="max" departPos="random" type="veh_passenger"/>
    <trip id="veh103" depart="154.50" from="207905965#3" to="207905949#1" departLane="best" departSpeed="max" departPos="random" type="veh_passenger"/>
    <trip id="veh104" depart="156.00" from="207894448#3" to="356882481#1" departLane="best" departSpeed="max" departPos="random" type="veh_passenger"/>
    <trip id="veh105" depart="157.50" from="-208162487#1" to="207906001#7" departLane="best" departSpeed="max" departPos="random" type="veh_passenger"/>
    <trip id="veh106" depart="159.00" from="-31852664#7" to="-356882485" departLane="best" departSpeed="max" departPos="random" type="veh_passenger"/>
    <trip id="veh107" depart="160.50" from="208162476" to="-356882429" departLane="best" departSpeed="max" departPos="random" type="veh_passenger"/>
    <trip id="veh108" depart="162.00" from="-207905949#6" to="-356882513#0" departLane="best" departSpeed="max" departPos="random" type="veh_passenger"/>
    <trip id="veh109" depart="163.50" from="-207905949#6" to="-31852664#12" departLane="best" departSpeed="max" departPos="random" type="veh_passenger"/>
    <trip id="veh110" depart="165.00" from="-31852855#2" to="356882481#0" departLane="best" departSpeed="max" departPos="random" type="veh_passenger"/>
    <trip id="veh111" depart="166.50" from="356882479#0" to="356882425#1" departLane="best" departSpeed="max" departPos="random" type="veh_passenger"/>
    <trip id="veh112" depart="168.00" from="356882452#0" to="207906001#1" departLane="best" departSpeed="max" departPos="random" type="veh_passenger"/>
    <trip id="veh113" depart="169.50" from="207905978" to="356969905" departLane="best" departSpeed="max" departPos="random" type="veh_passenger"/>
    <trip id="veh114" depart="171.00" from="207906018#0" to="-1144693906" departLane="best" departSpeed="max" departPos="random" type="veh_passenger"/>
    <trip id="veh115" depart="172.50" from="356882436" to="-356882429" departLane="best" departSpeed="max" departPos="random" type="veh_passenger"/>
    <trip id="veh116" depart="174.00" from="207906018#4" to="356882490#1" departLane="best" departSpeed="max" departPos="random" type="veh_passenger"/>
    <trip id="veh117" depart="175.50" from="-207905995#4" to="-207905965#0" departLane="best" departSpeed="max" departPos="random" type="veh_passenger"/>
    <trip id="veh118" depart="177.00" from="-207905961" to="1144693906" departLane="best" departSpeed="max" departPos="random" type="veh_passenger"/>
    <trip id="veh119" depart="178.50" from="-31852855#5" to="207905948#3" departLane="best" departSpeed="max" departPos="random" type="veh_passenger"/>
    <trip id="veh120" depart="180.00" from="31852664#12" to="-208162504#0" departLane="best" departSpeed="max" departPos="random" type="veh_passenger"/>
    <trip id="veh121" depart="181.50" from="207906001#2" to="-31852855#5" departLane="best" departSpeed="max" departPos="random" type="veh_passenger"/>
    <trip id="veh122" depart="183.00" from="1202494987" to="356882462" departLane="best" departSpeed="max" departPos="random" type="veh_passenger"/>
    <trip id="veh123" depart="184.50" from="1017058801#3" to="-356688226" departLane="best" departSpeed="max" departPos="random" type="veh_passenger"/>
    <trip id="veh124" depart="186.00" from="-1066324807#0" to="208162487#1" departLane="best" departSpeed="max" departPos="random" type="veh_passenger"/>
    <trip id="veh125" depart="187.50" from="207906001#3" to="-31852855#5" departLane="best" departSpeed="max" departPos="random" type="veh_passenger"/>
    <trip id="veh126" depart="189.00" from="31852855#0" to="1144693906" departLane="best" departSpeed="max" departPos="random" type="veh_passenger"/>
    <trip id="veh127" depart="190.50" from="-207905949#7" to="356882429" departLane="best" departSpeed="max" departPos="random" type="veh_passenger"/>
    <trip id="veh128" depart="192.00" from="356882490#0" to="1096223642" departLane="best" departSpeed="max" departPos="random" type="veh_passenger"/>
    <trip id="veh129" depart="193.50" from="-207906001#5" to="-207905978" departLane="best" departSpeed="max" departPos="random" type="veh_passenger"/>
    <trip id="veh130" depart="195.00" from="-356882452#0" to="356882455" departLane="best" departSpeed="max" departPos="random" type="veh_passenger"/>
    <trip id="veh131" depart="196.50" from="356882426" to="31852855#8" departLane="best" departSpeed="max" departPos="random" type="veh_passenger"/>
    <trip id="veh132" depart="198.00" from="356882485" to="-31852664#1" departLane="best" departSpeed="max" departPos="random" type="veh_passenger"/>
    <trip id="veh133" depart="199.50" from="-31852855#1" to="-207905958" departLane="best" departSpeed="max" departPos="random" type="veh_passenger"/>
    <trip id="veh134" depart="201.00" from="356688226" to="356882429" departLane="best" departSpeed="max" departPos="random" type="veh_passenger"/>
    <trip id="veh135" depart="202.50" from="-950226494#0" to="207905949#2" departLane="best" departSpeed="max" departPos="random" type="veh_passenger"/>
    <trip id="veh136" depart="204.00" from="-207906001#7" to="356882479#1" departLane="best" departSpeed="max" departPos="random" type="veh_passenger"/>
    <trip id="veh137" depart="205.50" from="356882470#2" to="356882756" departLane="best" departSpeed="max" departPos="random" type="veh_passenger"/>
    <trip id="veh138" depart="207.00" from="356882433" to="356882428" departLane="best" departSpeed="max" departPos="random" type="veh_passenger"/>
    <trip id="veh139" depart="208.50" from="-1202494991#0" to="207906018#3" departLane="best" departSpeed="max" departPos="random" type="veh_passenger"/>
    <trip id="veh140" depart="210.00" from="-356882475" to="356882481#0" departLane="best" departSpeed="max" departPos="random" type="veh_passenger"/>
    <trip id="veh141" depart="211.50" from="356882429" to="31852855#9" departLane="best" departSpeed="max" departPos="random" type="veh_passenger"/>
    <trip id="veh142" depart="213.00" from="356882433" to="-31852855#8" departLane="best" departSpeed="max" departPos="random" type="veh_passenger"/>
    <trip id="veh143" depart="214.50" from="356793955" to="-207905961" departLane="best" departSpeed="max" departPos="random" type="veh_passenger"/>
    <trip id="veh144" depart="216.00" from="356882475" to="31852855#6" departLane="best" departSpeed="max" departPos="random" type="veh_passenger"/>
    <trip id="veh145" depart="217.50" from="-31852664#14" to="31852664#4" departLane="best" departSpeed="max" departPos="random" type="veh_passenger"/>
    <trip id="veh146" depart="219.00" from="1055890428#2" to="-356882433" departLane="best" departSpeed="max" departPos="random" type="veh_passenger"/>
    <trip id="veh147" depart="220.50" from="356882425#1" to="-31852664#5" departLane="best" departSpeed="max" departPos="random" type="veh_passenger"/>
    <trip id="veh148" depart="222.00" from="-1202494991#0" to="-208162484#2" departLane="best" departSpeed="max" departPos="random" type="veh_passenger"/>
    <trip id="veh149" depart="223.50" from="-356882470#2" to="31897466#0" departLane="best" departSpeed="max" departPos="random" type="veh_passenger"/>
    <trip id="veh150" depart="225.00" from="356882754" to="-356688279#0" departLane="best" departSpeed="max" departPos="random" type="veh_passenger"/>
    <trip id="veh151" depart="226.50" from="207906001#6" to="-356882489" departLane="best" departSpeed="max" departPos="random" type="veh_passenger"/>
    <trip id="veh152" depart="228.00" from="356969899#0" to="1066324807#0" departLane="best" departSpeed="max" departPos="random" type="veh_passenger"/>
    <trip id="veh153" depart="229.50" from="356882756" to="-207906018#4" departLane="best" departSpeed="max" departPos="random" type="veh_passenger"/>
    <trip id="veh154" depart="231.00" from="356882513#0" to="-31852855#6" departLane="best" departSpeed="max" departPos="random" type="veh_passenger"/>
    <trip id="veh155" depart="232.50" from="-207905964#0" to="-356882501#1" departLane="best" departSpeed="max" departPos="random" type="veh_passenger"/>
    <trip id="veh156" depart="234.00" from="31852664#4" to="-356882438" departLane="best" departSpeed="max" departPos="random" type="veh_passenger"/>
    <trip id="veh157" depart="235.50" from="207905972#0" to="1055890425#6" departLane="best" departSpeed="max" departPos="random" type="veh_passenger"/>
    <trip id="veh158" depart="237.00" from="-356882513#1" to="1202494993#1" departLane="best" departSpeed="max" departPos="random" type="veh_passenger"/>
    <trip id="veh159" depart="238.50" from="-31852855#12" to="207906001#3" departLane="best" departSpeed="max" departPos="random" type="veh_passenger"/>
    <trip id="veh160" depart="240.00" from="-1066303201" to="356882476#1" departLane="best" departSpeed="max" departPos="random" type="veh_passenger"/>
    <trip id="veh161" depart="241.50" from="207905948#9" to="207906005#0" departLane="best" departSpeed="max" departPos="random" type="veh_passenger"/>
    <trip id="veh162" depart="243.00" from="31852855#0" to="207905965#3" departLane="best" departSpeed="max" departPos="random" type="veh_passenger"/>
    <trip id="veh163" depart="244.50" from="207906018#4" to="-356882452#1" departLane="best" departSpeed="max" departPos="random" type="veh_passenger"/>
    <trip id="veh164" depart="246.00" from="31852664#14" to="-356882431" departLane="best" departSpeed="max" departPos="random" type="veh_passenger"/>
    <trip id="veh165" depart="247.50" from="-356882452#1" to="-356882492#0" departLane="best" departSpeed="max" departPos="random" type="veh_passenger"/>
    <trip id="veh166" depart="249.00" from="-432304074" to="-356882428" departLane="best" departSpeed="max" departPos="random" type="veh_passenger"/>
    <trip id="veh167" depart="250.50" from="-207905995#0" to="-356882494" departLane="best" departSpeed="max" departPos="random" type="veh_passenger"/>
    <trip id="veh168" depart="252.00" from="356882489" to="207905949#0" departLane="best" departSpeed="max" departPos="random" type="veh_passenger"/>
    <trip id="veh169" depart="253.50" from="-356882429" to="1103148988#1" departLane="best" departSpeed="max" departPos="random" type="veh_passenger"/>
    <trip id="veh170" depart="255.00" from="-1066303201" to="-356882424" departLane="best" departSpeed="max" departPos="random" type="veh_passenger"/>
    <trip id="veh171" depart="256.50" from="1055890425#0" to="1318162506#1" departLane="best" departSpeed="max" departPos="random" type="veh_passenger"/>
    <trip id="veh172" depart="258.00" from="207906018#0" to="-356882756" departLane="best" departSpeed="max" departPos="random" type="veh_passenger"/>
    <trip id="veh173" depart="259.50" from="1055890425#5" to="-31852664#12" departLane="best" departSpeed="max" departPos="random" type="veh_passenger"/>
    <trip id="veh174" depart="261.00" from="1066324808" to="356882457#0" departLane="best" departSpeed="max" departPos="random" type="veh_passenger"/>
    <trip id="veh175" depart="262.50" from="356882426" to="-207906018#1" departLane="best" departSpeed="max" departPos="random" type="veh_passenger"/>
    <trip id="veh176" depart="264.00" from="-207905950#5" to="1055890426#0" departLane="best" departSpeed="max" departPos="random" type="veh_passenger"/>
    <trip id="veh177" depart="265.50" from="207906001#2" to="-356882455" departLane="best" departSpeed="max" departPos="random" type="veh_passenger"/>
    <trip id="veh178" depart="267.00" from="356882436" to="208162482#0" departLane="best" departSpeed="max" departPos="random" type="veh_passenger"/>
    <trip id="veh179" depart="268.50" from="208162476" to="-31852664#4" departLane="best" departSpeed="max" departPos="random" type="veh_passenger"/>
    <trip id="veh180" depart="270.00" from="-208162485#1" to="-1202494991#1" departLane="best" departSpeed="max" departPos="random" type="veh_passenger"/>
    <trip id="veh181" depart="271.50" from="-31852664#9" to="-356969899#0" departLane="best" departSpeed="max" departPos="random" type="veh_passenger"/>
    <trip id="veh182" depart="273.00" from="356882462" to="-207905949#4" departLane="best" departSpeed="max" departPos="random" type="veh_passenger"/>
    <trip id="veh183" depart="274.50" from="1017058798#1" to="207905949#7" departLane="best" departSpeed="max" departPos="random" type="veh_passenger"/>
    <trip id="veh184" depart="276.00" from="-208162484#4" to="207905995#4" departLane="best" departSpeed="max" departPos="random" type="veh_passenger"/>
    <trip id="veh185" depart="277.50" from="1202494988#1" to="-31852855#12" departLane="best" departSpeed="max" departPos="random" type="veh_passenger"/>
    <trip id="veh186" depart="279.00" from="207906018#1" to="-1096223642" departLane="best" departSpeed="max" departPos="random" type="veh_passenger"/>
    <trip id="veh187" depart="280.50" from="31852855#13" to="208162487#1" departLane="best" departSpeed="max" departPos="random" type="veh_passenger"/>
    <trip id="veh188" depart="282.00" from="-207905961" to="-356882497" departLane="best" departSpeed="max" departPos="random" type="veh_passenger"/>
    <trip id="veh189" depart="283.50" from="-207906018#3" to="356882500#1" departLane="best" departSpeed="max" departPos="random" type="veh_passenger"/>
    <trip id="veh190" depart="285.00" from="207894448#2" to="-207905948#0" departLane="best" departSpeed="max" departPos="random" type="veh_passenger"/>
    <trip id="veh191" depart="286.50" from="1055890428#0" to="31852664#11" departLane="best" departSpeed="max" departPos="random" type="veh_passenger"/>
    <trip id="veh192" depart="288.00" from="207906018#5" to="356969905" departLane="best" departSpeed="max" departPos="random" type="veh_passenger"/>
    <trip id="veh193" depart="289.50" from="207905965#3" to="356882492#3" departLane="best" departSpeed="max" departPos="random" type="veh_passenger"/>